
---------- Begin Simulation Statistics ----------
sim_seconds                                  0.088074                       # Number of seconds simulated
sim_ticks                                 88074484000                       # Number of ticks simulated
final_tick                                88074484000                       # Number of ticks from beginning of simulation (restored from checkpoints and never reset)
sim_freq                                 1000000000000                       # Frequency of simulated ticks
host_inst_rate                                1130465                       # Simulator instruction rate (inst/s)
host_op_rate                                  1862984                       # Simulator op (including micro ops) rate (op/s)
host_tick_rate                             2237872712                       # Simulator tick rate (ticks/s)
host_mem_usage                                 664260                       # Number of bytes of host memory used
host_seconds                                    39.36                       # Real time elapsed on the host
sim_insts                                    44490958                       # Number of instructions simulated
sim_ops                                      73320242                       # Number of ops (including micro ops) simulated
system.voltage_domain.voltage                       1                       # Voltage in Volts
system.clk_domain.clock                          1000                       # Clock period in ticks
system.mem_ctrls.pwrStateResidencyTicks::UNDEFINED  88074484000                       # Cumulative time (in ticks) in various power states
system.mem_ctrls.bytes_read::cpu.inst           26624                       # Number of bytes read from this memory
system.mem_ctrls.bytes_read::cpu.data          451264                       # Number of bytes read from this memory
system.mem_ctrls.bytes_read::total             477888                       # Number of bytes read from this memory
system.mem_ctrls.bytes_inst_read::cpu.inst        26624                       # Number of instructions bytes read from this memory
system.mem_ctrls.bytes_inst_read::total         26624                       # Number of instructions bytes read from this memory
system.mem_ctrls.bytes_written::writebacks        53056                       # Number of bytes written to this memory
system.mem_ctrls.bytes_written::total           53056                       # Number of bytes written to this memory
system.mem_ctrls.num_reads::cpu.inst              416                       # Number of read requests responded to by this memory
system.mem_ctrls.num_reads::cpu.data             7051                       # Number of read requests responded to by this memory
system.mem_ctrls.num_reads::total                7467                       # Number of read requests responded to by this memory
system.mem_ctrls.num_writes::writebacks           829                       # Number of write requests responded to by this memory
system.mem_ctrls.num_writes::total                829                       # Number of write requests responded to by this memory
system.mem_ctrls.bw_read::cpu.inst             302290                       # Total read bandwidth from this memory (bytes/s)
system.mem_ctrls.bw_read::cpu.data            5123663                       # Total read bandwidth from this memory (bytes/s)
system.mem_ctrls.bw_read::total               5425953                       # Total read bandwidth from this memory (bytes/s)
system.mem_ctrls.bw_inst_read::cpu.inst        302290                       # Instruction read bandwidth from this memory (bytes/s)
system.mem_ctrls.bw_inst_read::total           302290                       # Instruction read bandwidth from this memory (bytes/s)
system.mem_ctrls.bw_write::writebacks          602399                       # Write bandwidth from this memory (bytes/s)
system.mem_ctrls.bw_write::total               602399                       # Write bandwidth from this memory (bytes/s)
system.mem_ctrls.bw_total::writebacks          602399                       # Total bandwidth to/from this memory (bytes/s)
system.mem_ctrls.bw_total::cpu.inst            302290                       # Total bandwidth to/from this memory (bytes/s)
system.mem_ctrls.bw_total::cpu.data           5123663                       # Total bandwidth to/from this memory (bytes/s)
system.mem_ctrls.bw_total::total              6028352                       # Total bandwidth to/from this memory (bytes/s)
system.pwrStateResidencyTicks::UNDEFINED  88074484000                       # Cumulative time (in ticks) in various power states
system.cpu_voltage_domain.voltage                   1                       # Voltage in Volts
system.cpu_clk_domain.clock                       500                       # Clock period in ticks
system.cpu.dtb.walker.pwrStateResidencyTicks::UNDEFINED  88074484000                       # Cumulative time (in ticks) in various power states
system.cpu.dtb.rdAccesses                    20878045                       # TLB accesses on read requests
system.cpu.dtb.wrAccesses                     5816733                       # TLB accesses on write requests
system.cpu.dtb.rdMisses                           169                       # TLB misses on read requests
system.cpu.dtb.wrMisses                           107                       # TLB misses on write requests
system.cpu.apic_clk_domain.clock                 8000                       # Clock period in ticks
system.cpu.interrupts.pwrStateResidencyTicks::UNDEFINED  88074484000                       # Cumulative time (in ticks) in various power states
system.cpu.itb.walker.pwrStateResidencyTicks::UNDEFINED  88074484000                       # Cumulative time (in ticks) in various power states
system.cpu.itb.rdAccesses                           0                       # TLB accesses on read requests
system.cpu.itb.wrAccesses                    59518508                       # TLB accesses on write requests
system.cpu.itb.rdMisses                             0                       # TLB misses on read requests
system.cpu.itb.wrMisses                            42                       # TLB misses on write requests
system.cpu.workload.numSyscalls                    11                       # Number of system calls
system.cpu.pwrStateResidencyTicks::ON     88074484000                       # Cumulative time (in ticks) in various power states
system.cpu.numCycles                        176148968                       # number of cpu cycles simulated
system.cpu.numWorkItemsStarted                      0                       # number of work items this cpu started
system.cpu.numWorkItemsCompleted                    0                       # number of work items this cpu completed
system.cpu.committedInsts                    44490958                       # Number of instructions committed
system.cpu.committedOps                      73320242                       # Number of ops (including micro ops) committed
system.cpu.num_int_alu_accesses              72798305                       # Number of integer alu accesses
system.cpu.num_fp_alu_accesses                   1981                       # Number of float alu accesses
system.cpu.num_vec_alu_accesses                     0                       # Number of vector alu accesses
system.cpu.num_func_calls                      944950                       # number of times a function call or return occured
system.cpu.num_conditional_control_insts      4232663                       # number of instructions that are conditional controls
system.cpu.num_int_insts                     72798305                       # number of integer instructions
system.cpu.num_fp_insts                          1981                       # number of float instructions
system.cpu.num_vec_insts                            0                       # number of vector instructions
system.cpu.num_int_register_reads           163696258                       # number of times the integer registers were read
system.cpu.num_int_register_writes           63588314                       # number of times the integer registers were written
system.cpu.num_fp_register_reads                 3803                       # number of times the floating registers were read
system.cpu.num_fp_register_writes                1504                       # number of times the floating registers were written
system.cpu.num_vec_register_reads                   0                       # number of times the vector registers were read
system.cpu.num_vec_register_writes                  0                       # number of times the vector registers were written
system.cpu.num_cc_register_reads             27637979                       # number of times the CC registers were read
system.cpu.num_cc_register_writes            24933767                       # number of times the CC registers were written
system.cpu.num_mem_refs                      26694773                       # number of memory refs
system.cpu.num_load_insts                    20878041                       # Number of load instructions
system.cpu.num_store_insts                    5816732                       # Number of store instructions
system.cpu.num_idle_cycles                          0                       # Number of idle cycles
system.cpu.num_busy_cycles                  176148968                       # Number of busy cycles
system.cpu.not_idle_fraction                        1                       # Percentage of non-idle cycles
system.cpu.idle_fraction                            0                       # Percentage of idle cycles
system.cpu.Branches                           5575014                       # Number of branches fetched
system.cpu.op_class::No_OpClass                175849      0.24%      0.24% # Class of executed instruction
system.cpu.op_class::IntAlu                  45445643     61.98%     62.22% # Class of executed instruction
system.cpu.op_class::IntMult                        4      0.00%     62.22% # Class of executed instruction
system.cpu.op_class::IntDiv                   1003001      1.37%     63.59% # Class of executed instruction
system.cpu.op_class::FloatAdd                      10      0.00%     63.59% # Class of executed instruction
system.cpu.op_class::FloatCmp                       0      0.00%     63.59% # Class of executed instruction
system.cpu.op_class::FloatCvt                       0      0.00%     63.59% # Class of executed instruction
system.cpu.op_class::FloatMult                      0      0.00%     63.59% # Class of executed instruction
system.cpu.op_class::FloatMultAcc                   0      0.00%     63.59% # Class of executed instruction
system.cpu.op_class::FloatDiv                       0      0.00%     63.59% # Class of executed instruction
system.cpu.op_class::FloatMisc                      0      0.00%     63.59% # Class of executed instruction
system.cpu.op_class::FloatSqrt                      0      0.00%     63.59% # Class of executed instruction
system.cpu.op_class::SimdAdd                      374      0.00%     63.59% # Class of executed instruction
system.cpu.op_class::SimdAddAcc                     0      0.00%     63.59% # Class of executed instruction
system.cpu.op_class::SimdAlu                       76      0.00%     63.59% # Class of executed instruction
system.cpu.op_class::SimdCmp                        0      0.00%     63.59% # Class of executed instruction
system.cpu.op_class::SimdCvt                      110      0.00%     63.59% # Class of executed instruction
system.cpu.op_class::SimdMisc                     216      0.00%     63.59% # Class of executed instruction
system.cpu.op_class::SimdMult                       0      0.00%     63.59% # Class of executed instruction
system.cpu.op_class::SimdMultAcc                    0      0.00%     63.59% # Class of executed instruction
system.cpu.op_class::SimdShift                    186      0.00%     63.59% # Class of executed instruction
system.cpu.op_class::SimdShiftAcc                   0      0.00%     63.59% # Class of executed instruction
system.cpu.op_class::SimdSqrt                       0      0.00%     63.59% # Class of executed instruction
system.cpu.op_class::SimdFloatAdd                   0      0.00%     63.59% # Class of executed instruction
system.cpu.op_class::SimdFloatAlu                   0      0.00%     63.59% # Class of executed instruction
system.cpu.op_class::SimdFloatCmp                   0      0.00%     63.59% # Class of executed instruction
system.cpu.op_class::SimdFloatCvt                   0      0.00%     63.59% # Class of executed instruction
system.cpu.op_class::SimdFloatDiv                   0      0.00%     63.59% # Class of executed instruction
system.cpu.op_class::SimdFloatMisc                  0      0.00%     63.59% # Class of executed instruction
system.cpu.op_class::SimdFloatMult                  0      0.00%     63.59% # Class of executed instruction
system.cpu.op_class::SimdFloatMultAcc               0      0.00%     63.59% # Class of executed instruction
system.cpu.op_class::SimdFloatSqrt                  0      0.00%     63.59% # Class of executed instruction
system.cpu.op_class::MemRead                 20877971     28.48%     92.07% # Class of executed instruction
system.cpu.op_class::MemWrite                 5816305      7.93%    100.00% # Class of executed instruction
system.cpu.op_class::FloatMemRead                  70      0.00%    100.00% # Class of executed instruction
system.cpu.op_class::FloatMemWrite                427      0.00%    100.00% # Class of executed instruction
system.cpu.op_class::IprAccess                      0      0.00%    100.00% # Class of executed instruction
system.cpu.op_class::InstPrefetch                   0      0.00%    100.00% # Class of executed instruction
system.cpu.op_class::total                   73320242                       # Class of executed instruction
system.cpu.dcache.tags.pwrStateResidencyTicks::UNDEFINED  88074484000                       # Cumulative time (in ticks) in various power states
system.cpu.dcache.tags.tagsinuse           510.004940                       # Cycle average of tags in use
system.cpu.dcache.tags.total_refs            26694778                       # Total number of references to valid blocks.
system.cpu.dcache.tags.sampled_refs             45459                       # Sample count of references to valid blocks.
system.cpu.dcache.tags.avg_refs            587.227568                       # Average number of references to valid blocks.
system.cpu.dcache.tags.warmup_cycle            759000                       # Cycle when the warmup percentage was hit.
system.cpu.dcache.tags.occ_blocks::cpu.data   510.004940                       # Average occupied blocks per requestor
system.cpu.dcache.tags.occ_percent::cpu.data     0.996103                       # Average percentage of cache occupancy
system.cpu.dcache.tags.occ_percent::total     0.996103                       # Average percentage of cache occupancy
system.cpu.dcache.tags.occ_task_id_blocks::1024          512                       # Occupied blocks per task id
system.cpu.dcache.tags.age_task_id_blocks_1024::0            8                       # Occupied blocks per task id
system.cpu.dcache.tags.age_task_id_blocks_1024::1           35                       # Occupied blocks per task id
system.cpu.dcache.tags.age_task_id_blocks_1024::2           34                       # Occupied blocks per task id
system.cpu.dcache.tags.age_task_id_blocks_1024::3          434                       # Occupied blocks per task id
system.cpu.dcache.tags.age_task_id_blocks_1024::4            1                       # Occupied blocks per task id
system.cpu.dcache.tags.occ_task_id_percent::1024            1                       # Percentage of cache occupancy per task id
system.cpu.dcache.tags.tag_accesses          53435015                       # Number of tag accesses
system.cpu.dcache.tags.data_accesses         53435015                       # Number of data accesses
system.cpu.dcache.pwrStateResidencyTicks::UNDEFINED  88074484000                       # Cumulative time (in ticks) in various power states
system.cpu.dcache.ReadReq_hits::cpu.data     20839291                       # number of ReadReq hits
system.cpu.dcache.ReadReq_hits::total        20839291                       # number of ReadReq hits
system.cpu.dcache.WriteReq_hits::cpu.data      5794547                       # number of WriteReq hits
system.cpu.dcache.WriteReq_hits::total        5794547                       # number of WriteReq hits
system.cpu.dcache.demand_hits::cpu.data      26633838                       # number of demand (read+write) hits
system.cpu.dcache.demand_hits::total         26633838                       # number of demand (read+write) hits
system.cpu.dcache.overall_hits::cpu.data     26633838                       # number of overall hits
system.cpu.dcache.overall_hits::total        26633838                       # number of overall hits
system.cpu.dcache.ReadReq_misses::cpu.data        38754                       # number of ReadReq misses
system.cpu.dcache.ReadReq_misses::total         38754                       # number of ReadReq misses
system.cpu.dcache.WriteReq_misses::cpu.data        22186                       # number of WriteReq misses
system.cpu.dcache.WriteReq_misses::total        22186                       # number of WriteReq misses
system.cpu.dcache.demand_misses::cpu.data        60940                       # number of demand (read+write) misses
system.cpu.dcache.demand_misses::total          60940                       # number of demand (read+write) misses
system.cpu.dcache.overall_misses::cpu.data        60940                       # number of overall misses
system.cpu.dcache.overall_misses::total         60940                       # number of overall misses
system.cpu.dcache.ReadReq_miss_latency::cpu.data   1075832000                       # number of ReadReq miss cycles
system.cpu.dcache.ReadReq_miss_latency::total   1075832000                       # number of ReadReq miss cycles
system.cpu.dcache.WriteReq_miss_latency::cpu.data    765955000                       # number of WriteReq miss cycles
system.cpu.dcache.WriteReq_miss_latency::total    765955000                       # number of WriteReq miss cycles
system.cpu.dcache.demand_miss_latency::cpu.data   1841787000                       # number of demand (read+write) miss cycles
system.cpu.dcache.demand_miss_latency::total   1841787000                       # number of demand (read+write) miss cycles
system.cpu.dcache.overall_miss_latency::cpu.data   1841787000                       # number of overall miss cycles
system.cpu.dcache.overall_miss_latency::total   1841787000                       # number of overall miss cycles
system.cpu.dcache.ReadReq_accesses::cpu.data     20878045                       # number of ReadReq accesses(hits+misses)
system.cpu.dcache.ReadReq_accesses::total     20878045                       # number of ReadReq accesses(hits+misses)
system.cpu.dcache.WriteReq_accesses::cpu.data      5816733                       # number of WriteReq accesses(hits+misses)
system.cpu.dcache.WriteReq_accesses::total      5816733                       # number of WriteReq accesses(hits+misses)
system.cpu.dcache.demand_accesses::cpu.data     26694778                       # number of demand (read+write) accesses
system.cpu.dcache.demand_accesses::total     26694778                       # number of demand (read+write) accesses
system.cpu.dcache.overall_accesses::cpu.data     26694778                       # number of overall (read+write) accesses
system.cpu.dcache.overall_accesses::total     26694778                       # number of overall (read+write) accesses
system.cpu.dcache.ReadReq_miss_rate::cpu.data     0.001856                       # miss rate for ReadReq accesses
system.cpu.dcache.ReadReq_miss_rate::total     0.001856                       # miss rate for ReadReq accesses
system.cpu.dcache.WriteReq_miss_rate::cpu.data     0.003814                       # miss rate for WriteReq accesses
system.cpu.dcache.WriteReq_miss_rate::total     0.003814                       # miss rate for WriteReq accesses
system.cpu.dcache.demand_miss_rate::cpu.data     0.002283                       # miss rate for demand accesses
system.cpu.dcache.demand_miss_rate::total     0.002283                       # miss rate for demand accesses
system.cpu.dcache.overall_miss_rate::cpu.data     0.002283                       # miss rate for overall accesses
system.cpu.dcache.overall_miss_rate::total     0.002283                       # miss rate for overall accesses
system.cpu.dcache.ReadReq_avg_miss_latency::cpu.data 27760.540847                       # average ReadReq miss latency
system.cpu.dcache.ReadReq_avg_miss_latency::total 27760.540847                       # average ReadReq miss latency
system.cpu.dcache.WriteReq_avg_miss_latency::cpu.data 34524.249527                       # average WriteReq miss latency
system.cpu.dcache.WriteReq_avg_miss_latency::total 34524.249527                       # average WriteReq miss latency
system.cpu.dcache.demand_avg_miss_latency::cpu.data 30222.957007                       # average overall miss latency
system.cpu.dcache.demand_avg_miss_latency::total 30222.957007                       # average overall miss latency
system.cpu.dcache.overall_avg_miss_latency::cpu.data 30222.957007                       # average overall miss latency
system.cpu.dcache.overall_avg_miss_latency::total 30222.957007                       # average overall miss latency
system.cpu.dcache.blocked_cycles::no_mshrs            0                       # number of cycles access was blocked
system.cpu.dcache.blocked_cycles::no_targets            0                       # number of cycles access was blocked
system.cpu.dcache.blocked::no_mshrs                 0                       # number of cycles access was blocked
system.cpu.dcache.blocked::no_targets               0                       # number of cycles access was blocked
system.cpu.dcache.avg_blocked_cycles::no_mshrs          nan                       # average number of cycles each access was blocked
system.cpu.dcache.avg_blocked_cycles::no_targets          nan                       # average number of cycles each access was blocked
system.cpu.dcache.writebacks::writebacks        43623                       # number of writebacks
system.cpu.dcache.writebacks::total             43623                       # number of writebacks
system.cpu.dcache.ReadReq_mshr_misses::cpu.data        38754                       # number of ReadReq MSHR misses
system.cpu.dcache.ReadReq_mshr_misses::total        38754                       # number of ReadReq MSHR misses
system.cpu.dcache.WriteReq_mshr_misses::cpu.data        22186                       # number of WriteReq MSHR misses
system.cpu.dcache.WriteReq_mshr_misses::total        22186                       # number of WriteReq MSHR misses
system.cpu.dcache.demand_mshr_misses::cpu.data        60940                       # number of demand (read+write) MSHR misses
system.cpu.dcache.demand_mshr_misses::total        60940                       # number of demand (read+write) MSHR misses
system.cpu.dcache.overall_mshr_misses::cpu.data        60940                       # number of overall MSHR misses
system.cpu.dcache.overall_mshr_misses::total        60940                       # number of overall MSHR misses
system.cpu.dcache.ReadReq_mshr_miss_latency::cpu.data   1037078000                       # number of ReadReq MSHR miss cycles
system.cpu.dcache.ReadReq_mshr_miss_latency::total   1037078000                       # number of ReadReq MSHR miss cycles
system.cpu.dcache.WriteReq_mshr_miss_latency::cpu.data    743769000                       # number of WriteReq MSHR miss cycles
system.cpu.dcache.WriteReq_mshr_miss_latency::total    743769000                       # number of WriteReq MSHR miss cycles
system.cpu.dcache.demand_mshr_miss_latency::cpu.data   1780847000                       # number of demand (read+write) MSHR miss cycles
system.cpu.dcache.demand_mshr_miss_latency::total   1780847000                       # number of demand (read+write) MSHR miss cycles
system.cpu.dcache.overall_mshr_miss_latency::cpu.data   1780847000                       # number of overall MSHR miss cycles
system.cpu.dcache.overall_mshr_miss_latency::total   1780847000                       # number of overall MSHR miss cycles
system.cpu.dcache.ReadReq_mshr_miss_rate::cpu.data     0.001856                       # mshr miss rate for ReadReq accesses
system.cpu.dcache.ReadReq_mshr_miss_rate::total     0.001856                       # mshr miss rate for ReadReq accesses
system.cpu.dcache.WriteReq_mshr_miss_rate::cpu.data     0.003814                       # mshr miss rate for WriteReq accesses
system.cpu.dcache.WriteReq_mshr_miss_rate::total     0.003814                       # mshr miss rate for WriteReq accesses
system.cpu.dcache.demand_mshr_miss_rate::cpu.data     0.002283                       # mshr miss rate for demand accesses
system.cpu.dcache.demand_mshr_miss_rate::total     0.002283                       # mshr miss rate for demand accesses
system.cpu.dcache.overall_mshr_miss_rate::cpu.data     0.002283                       # mshr miss rate for overall accesses
system.cpu.dcache.overall_mshr_miss_rate::total     0.002283                       # mshr miss rate for overall accesses
system.cpu.dcache.ReadReq_avg_mshr_miss_latency::cpu.data 26760.540847                       # average ReadReq mshr miss latency
system.cpu.dcache.ReadReq_avg_mshr_miss_latency::total 26760.540847                       # average ReadReq mshr miss latency
system.cpu.dcache.WriteReq_avg_mshr_miss_latency::cpu.data 33524.249527                       # average WriteReq mshr miss latency
system.cpu.dcache.WriteReq_avg_mshr_miss_latency::total 33524.249527                       # average WriteReq mshr miss latency
system.cpu.dcache.demand_avg_mshr_miss_latency::cpu.data 29222.957007                       # average overall mshr miss latency
system.cpu.dcache.demand_avg_mshr_miss_latency::total 29222.957007                       # average overall mshr miss latency
system.cpu.dcache.overall_avg_mshr_miss_latency::cpu.data 29222.957007                       # average overall mshr miss latency
system.cpu.dcache.overall_avg_mshr_miss_latency::total 29222.957007                       # average overall mshr miss latency
system.cpu.dcache.replacements                  44947                       # number of replacements
system.cpu.dtb_walker_cache.tags.pwrStateResidencyTicks::UNDEFINED  88074484000                       # Cumulative time (in ticks) in various power states
system.cpu.dtb_walker_cache.tags.tagsinuse            0                       # Cycle average of tags in use
system.cpu.dtb_walker_cache.tags.total_refs            0                       # Total number of references to valid blocks.
system.cpu.dtb_walker_cache.tags.sampled_refs            0                       # Sample count of references to valid blocks.
system.cpu.dtb_walker_cache.tags.avg_refs          nan                       # Average number of references to valid blocks.
system.cpu.dtb_walker_cache.tags.warmup_cycle            0                       # Cycle when the warmup percentage was hit.
system.cpu.dtb_walker_cache.tags.tag_accesses            0                       # Number of tag accesses
system.cpu.dtb_walker_cache.tags.data_accesses            0                       # Number of data accesses
system.cpu.dtb_walker_cache.pwrStateResidencyTicks::UNDEFINED  88074484000                       # Cumulative time (in ticks) in various power states
system.cpu.dtb_walker_cache.blocked_cycles::no_mshrs            0                       # number of cycles access was blocked
system.cpu.dtb_walker_cache.blocked_cycles::no_targets            0                       # number of cycles access was blocked
system.cpu.dtb_walker_cache.blocked::no_mshrs            0                       # number of cycles access was blocked
system.cpu.dtb_walker_cache.blocked::no_targets            0                       # number of cycles access was blocked
system.cpu.dtb_walker_cache.avg_blocked_cycles::no_mshrs          nan                       # average number of cycles each access was blocked
system.cpu.dtb_walker_cache.avg_blocked_cycles::no_targets          nan                       # average number of cycles each access was blocked
system.cpu.dtb_walker_cache.replacements            0                       # number of replacements
system.cpu.icache.tags.pwrStateResidencyTicks::UNDEFINED  88074484000                       # Cumulative time (in ticks) in various power states
system.cpu.icache.tags.tagsinuse           280.292602                       # Cycle average of tags in use
system.cpu.icache.tags.total_refs            59518508                       # Total number of references to valid blocks.
system.cpu.icache.tags.sampled_refs               418                       # Sample count of references to valid blocks.
system.cpu.icache.tags.avg_refs          142388.775120                       # Average number of references to valid blocks.
system.cpu.icache.tags.warmup_cycle            439000                       # Cycle when the warmup percentage was hit.
system.cpu.icache.tags.occ_blocks::cpu.inst   280.292602                       # Average occupied blocks per requestor
system.cpu.icache.tags.occ_percent::cpu.inst     0.547446                       # Average percentage of cache occupancy
system.cpu.icache.tags.occ_percent::total     0.547446                       # Average percentage of cache occupancy
system.cpu.icache.tags.occ_task_id_blocks::1024          347                       # Occupied blocks per task id
system.cpu.icache.tags.age_task_id_blocks_1024::0           39                       # Occupied blocks per task id
system.cpu.icache.tags.age_task_id_blocks_1024::1           61                       # Occupied blocks per task id
system.cpu.icache.tags.age_task_id_blocks_1024::4          247                       # Occupied blocks per task id
system.cpu.icache.tags.occ_task_id_percent::1024     0.677734                       # Percentage of cache occupancy per task id
system.cpu.icache.tags.tag_accesses         119037434                       # Number of tag accesses
system.cpu.icache.tags.data_accesses        119037434                       # Number of data accesses
system.cpu.icache.pwrStateResidencyTicks::UNDEFINED  88074484000                       # Cumulative time (in ticks) in various power states
system.cpu.icache.ReadReq_hits::cpu.inst     59518090                       # number of ReadReq hits
system.cpu.icache.ReadReq_hits::total        59518090                       # number of ReadReq hits
system.cpu.icache.demand_hits::cpu.inst      59518090                       # number of demand (read+write) hits
system.cpu.icache.demand_hits::total         59518090                       # number of demand (read+write) hits
system.cpu.icache.overall_hits::cpu.inst     59518090                       # number of overall hits
system.cpu.icache.overall_hits::total        59518090                       # number of overall hits
system.cpu.icache.ReadReq_misses::cpu.inst          418                       # number of ReadReq misses
system.cpu.icache.ReadReq_misses::total           418                       # number of ReadReq misses
system.cpu.icache.demand_misses::cpu.inst          418                       # number of demand (read+write) misses
system.cpu.icache.demand_misses::total            418                       # number of demand (read+write) misses
system.cpu.icache.overall_misses::cpu.inst          418                       # number of overall misses
system.cpu.icache.overall_misses::total           418                       # number of overall misses
system.cpu.icache.ReadReq_miss_latency::cpu.inst     80774000                       # number of ReadReq miss cycles
system.cpu.icache.ReadReq_miss_latency::total     80774000                       # number of ReadReq miss cycles
system.cpu.icache.demand_miss_latency::cpu.inst     80774000                       # number of demand (read+write) miss cycles
system.cpu.icache.demand_miss_latency::total     80774000                       # number of demand (read+write) miss cycles
system.cpu.icache.overall_miss_latency::cpu.inst     80774000                       # number of overall miss cycles
system.cpu.icache.overall_miss_latency::total     80774000                       # number of overall miss cycles
system.cpu.icache.ReadReq_accesses::cpu.inst     59518508                       # number of ReadReq accesses(hits+misses)
system.cpu.icache.ReadReq_accesses::total     59518508                       # number of ReadReq accesses(hits+misses)
system.cpu.icache.demand_accesses::cpu.inst     59518508                       # number of demand (read+write) accesses
system.cpu.icache.demand_accesses::total     59518508                       # number of demand (read+write) accesses
system.cpu.icache.overall_accesses::cpu.inst     59518508                       # number of overall (read+write) accesses
system.cpu.icache.overall_accesses::total     59518508                       # number of overall (read+write) accesses
system.cpu.icache.ReadReq_miss_rate::cpu.inst     0.000007                       # miss rate for ReadReq accesses
system.cpu.icache.ReadReq_miss_rate::total     0.000007                       # miss rate for ReadReq accesses
system.cpu.icache.demand_miss_rate::cpu.inst     0.000007                       # miss rate for demand accesses
system.cpu.icache.demand_miss_rate::total     0.000007                       # miss rate for demand accesses
system.cpu.icache.overall_miss_rate::cpu.inst     0.000007                       # miss rate for overall accesses
system.cpu.icache.overall_miss_rate::total     0.000007                       # miss rate for overall accesses
system.cpu.icache.ReadReq_avg_miss_latency::cpu.inst 193239.234450                       # average ReadReq miss latency
system.cpu.icache.ReadReq_avg_miss_latency::total 193239.234450                       # average ReadReq miss latency
system.cpu.icache.demand_avg_miss_latency::cpu.inst 193239.234450                       # average overall miss latency
system.cpu.icache.demand_avg_miss_latency::total 193239.234450                       # average overall miss latency
system.cpu.icache.overall_avg_miss_latency::cpu.inst 193239.234450                       # average overall miss latency
system.cpu.icache.overall_avg_miss_latency::total 193239.234450                       # average overall miss latency
system.cpu.icache.blocked_cycles::no_mshrs            0                       # number of cycles access was blocked
system.cpu.icache.blocked_cycles::no_targets            0                       # number of cycles access was blocked
system.cpu.icache.blocked::no_mshrs                 0                       # number of cycles access was blocked
system.cpu.icache.blocked::no_targets               0                       # number of cycles access was blocked
system.cpu.icache.avg_blocked_cycles::no_mshrs          nan                       # average number of cycles each access was blocked
system.cpu.icache.avg_blocked_cycles::no_targets          nan                       # average number of cycles each access was blocked
system.cpu.icache.writebacks::writebacks           71                       # number of writebacks
system.cpu.icache.writebacks::total                71                       # number of writebacks
system.cpu.icache.ReadReq_mshr_misses::cpu.inst          418                       # number of ReadReq MSHR misses
system.cpu.icache.ReadReq_mshr_misses::total          418                       # number of ReadReq MSHR misses
system.cpu.icache.demand_mshr_misses::cpu.inst          418                       # number of demand (read+write) MSHR misses
system.cpu.icache.demand_mshr_misses::total          418                       # number of demand (read+write) MSHR misses
system.cpu.icache.overall_mshr_misses::cpu.inst          418                       # number of overall MSHR misses
system.cpu.icache.overall_mshr_misses::total          418                       # number of overall MSHR misses
system.cpu.icache.ReadReq_mshr_miss_latency::cpu.inst     80356000                       # number of ReadReq MSHR miss cycles
system.cpu.icache.ReadReq_mshr_miss_latency::total     80356000                       # number of ReadReq MSHR miss cycles
system.cpu.icache.demand_mshr_miss_latency::cpu.inst     80356000                       # number of demand (read+write) MSHR miss cycles
system.cpu.icache.demand_mshr_miss_latency::total     80356000                       # number of demand (read+write) MSHR miss cycles
system.cpu.icache.overall_mshr_miss_latency::cpu.inst     80356000                       # number of overall MSHR miss cycles
system.cpu.icache.overall_mshr_miss_latency::total     80356000                       # number of overall MSHR miss cycles
system.cpu.icache.ReadReq_mshr_miss_rate::cpu.inst     0.000007                       # mshr miss rate for ReadReq accesses
system.cpu.icache.ReadReq_mshr_miss_rate::total     0.000007                       # mshr miss rate for ReadReq accesses
system.cpu.icache.demand_mshr_miss_rate::cpu.inst     0.000007                       # mshr miss rate for demand accesses
system.cpu.icache.demand_mshr_miss_rate::total     0.000007                       # mshr miss rate for demand accesses
system.cpu.icache.overall_mshr_miss_rate::cpu.inst     0.000007                       # mshr miss rate for overall accesses
system.cpu.icache.overall_mshr_miss_rate::total     0.000007                       # mshr miss rate for overall accesses
system.cpu.icache.ReadReq_avg_mshr_miss_latency::cpu.inst 192239.234450                       # average ReadReq mshr miss latency
system.cpu.icache.ReadReq_avg_mshr_miss_latency::total 192239.234450                       # average ReadReq mshr miss latency
system.cpu.icache.demand_avg_mshr_miss_latency::cpu.inst 192239.234450                       # average overall mshr miss latency
system.cpu.icache.demand_avg_mshr_miss_latency::total 192239.234450                       # average overall mshr miss latency
system.cpu.icache.overall_avg_mshr_miss_latency::cpu.inst 192239.234450                       # average overall mshr miss latency
system.cpu.icache.overall_avg_mshr_miss_latency::total 192239.234450                       # average overall mshr miss latency
system.cpu.icache.replacements                     71                       # number of replacements
system.cpu.itb_walker_cache.tags.pwrStateResidencyTicks::UNDEFINED  88074484000                       # Cumulative time (in ticks) in various power states
system.cpu.itb_walker_cache.tags.tagsinuse            0                       # Cycle average of tags in use
system.cpu.itb_walker_cache.tags.total_refs            0                       # Total number of references to valid blocks.
system.cpu.itb_walker_cache.tags.sampled_refs            0                       # Sample count of references to valid blocks.
system.cpu.itb_walker_cache.tags.avg_refs          nan                       # Average number of references to valid blocks.
system.cpu.itb_walker_cache.tags.warmup_cycle            0                       # Cycle when the warmup percentage was hit.
system.cpu.itb_walker_cache.tags.tag_accesses            0                       # Number of tag accesses
system.cpu.itb_walker_cache.tags.data_accesses            0                       # Number of data accesses
system.cpu.itb_walker_cache.pwrStateResidencyTicks::UNDEFINED  88074484000                       # Cumulative time (in ticks) in various power states
system.cpu.itb_walker_cache.blocked_cycles::no_mshrs            0                       # number of cycles access was blocked
system.cpu.itb_walker_cache.blocked_cycles::no_targets            0                       # number of cycles access was blocked
system.cpu.itb_walker_cache.blocked::no_mshrs            0                       # number of cycles access was blocked
system.cpu.itb_walker_cache.blocked::no_targets            0                       # number of cycles access was blocked
system.cpu.itb_walker_cache.avg_blocked_cycles::no_mshrs          nan                       # average number of cycles each access was blocked
system.cpu.itb_walker_cache.avg_blocked_cycles::no_targets          nan                       # average number of cycles each access was blocked
system.cpu.itb_walker_cache.replacements            0                       # number of replacements
system.l2.tags.pwrStateResidencyTicks::UNDEFINED  88074484000                       # Cumulative time (in ticks) in various power states
system.l2.tags.tagsinuse                  2019.056705                       # Cycle average of tags in use
system.l2.tags.total_refs                      106376                       # Total number of references to valid blocks.
system.l2.tags.sampled_refs                     24290                       # Sample count of references to valid blocks.
system.l2.tags.avg_refs                      4.379415                       # Average number of references to valid blocks.
system.l2.tags.warmup_cycle                    428500                       # Cycle when the warmup percentage was hit.
system.l2.tags.occ_blocks::writebacks        1.452736                       # Average occupied blocks per requestor
system.l2.tags.occ_blocks::cpu.inst         11.239298                       # Average occupied blocks per requestor
system.l2.tags.occ_blocks::cpu.data       2006.364671                       # Average occupied blocks per requestor
system.l2.tags.occ_percent::writebacks       0.000709                       # Average percentage of cache occupancy
system.l2.tags.occ_percent::cpu.inst         0.005488                       # Average percentage of cache occupancy
system.l2.tags.occ_percent::cpu.data         0.979670                       # Average percentage of cache occupancy
system.l2.tags.occ_percent::total            0.985868                       # Average percentage of cache occupancy
system.l2.tags.occ_task_id_blocks::1024          2048                       # Occupied blocks per task id
system.l2.tags.age_task_id_blocks_1024::0           57                       # Occupied blocks per task id
system.l2.tags.age_task_id_blocks_1024::1          119                       # Occupied blocks per task id
system.l2.tags.age_task_id_blocks_1024::2           33                       # Occupied blocks per task id
system.l2.tags.age_task_id_blocks_1024::3           58                       # Occupied blocks per task id
system.l2.tags.age_task_id_blocks_1024::4         1781                       # Occupied blocks per task id
system.l2.tags.occ_task_id_percent::1024            1                       # Percentage of cache occupancy per task id
system.l2.tags.tag_accesses                    875298                       # Number of tag accesses
system.l2.tags.data_accesses                   875298                       # Number of data accesses
system.l2.pwrStateResidencyTicks::UNDEFINED  88074484000                       # Cumulative time (in ticks) in various power states
system.l2.WritebackDirty_hits::writebacks        43623                       # number of WritebackDirty hits
system.l2.WritebackDirty_hits::total            43623                       # number of WritebackDirty hits
system.l2.WritebackClean_hits::writebacks           71                       # number of WritebackClean hits
system.l2.WritebackClean_hits::total               71                       # number of WritebackClean hits
system.l2.UpgradeReq_hits::cpu.data             15481                       # number of UpgradeReq hits
system.l2.UpgradeReq_hits::total                15481                       # number of UpgradeReq hits
system.l2.ReadExReq_hits::cpu.data                261                       # number of ReadExReq hits
system.l2.ReadExReq_hits::total                   261                       # number of ReadExReq hits
system.l2.ReadCleanReq_hits::cpu.inst               2                       # number of ReadCleanReq hits
system.l2.ReadCleanReq_hits::total                  2                       # number of ReadCleanReq hits
system.l2.ReadSharedReq_hits::cpu.data          21371                       # number of ReadSharedReq hits
system.l2.ReadSharedReq_hits::total             21371                       # number of ReadSharedReq hits
system.l2.demand_hits::cpu.inst                     2                       # number of demand (read+write) hits
system.l2.demand_hits::cpu.data                 21632                       # number of demand (read+write) hits
system.l2.demand_hits::total                    21634                       # number of demand (read+write) hits
system.l2.overall_hits::cpu.inst                    2                       # number of overall hits
system.l2.overall_hits::cpu.data                21632                       # number of overall hits
system.l2.overall_hits::total                   21634                       # number of overall hits
system.l2.ReadExReq_misses::cpu.data             6444                       # number of ReadExReq misses
system.l2.ReadExReq_misses::total                6444                       # number of ReadExReq misses
system.l2.ReadCleanReq_misses::cpu.inst           416                       # number of ReadCleanReq misses
system.l2.ReadCleanReq_misses::total              416                       # number of ReadCleanReq misses
system.l2.ReadSharedReq_misses::cpu.data        17383                       # number of ReadSharedReq misses
system.l2.ReadSharedReq_misses::total           17383                       # number of ReadSharedReq misses
system.l2.demand_misses::cpu.inst                 416                       # number of demand (read+write) misses
system.l2.demand_misses::cpu.data               23827                       # number of demand (read+write) misses
system.l2.demand_misses::total                  24243                       # number of demand (read+write) misses
system.l2.overall_misses::cpu.inst                416                       # number of overall misses
system.l2.overall_misses::cpu.data              23827                       # number of overall misses
system.l2.overall_misses::total                 24243                       # number of overall misses
system.l2.ReadExReq_miss_latency::cpu.data    529456500                       # number of ReadExReq miss cycles
system.l2.ReadExReq_miss_latency::total     529456500                       # number of ReadExReq miss cycles
system.l2.ReadCleanReq_miss_latency::cpu.inst     79704500                       # number of ReadCleanReq miss cycles
system.l2.ReadCleanReq_miss_latency::total     79704500                       # number of ReadCleanReq miss cycles
system.l2.ReadSharedReq_miss_latency::cpu.data    733179500                       # number of ReadSharedReq miss cycles
system.l2.ReadSharedReq_miss_latency::total    733179500                       # number of ReadSharedReq miss cycles
system.l2.demand_miss_latency::cpu.inst      79704500                       # number of demand (read+write) miss cycles
system.l2.demand_miss_latency::cpu.data    1262636000                       # number of demand (read+write) miss cycles
system.l2.demand_miss_latency::total       1342340500                       # number of demand (read+write) miss cycles
system.l2.overall_miss_latency::cpu.inst     79704500                       # number of overall miss cycles
system.l2.overall_miss_latency::cpu.data   1262636000                       # number of overall miss cycles
system.l2.overall_miss_latency::total      1342340500                       # number of overall miss cycles
system.l2.WritebackDirty_accesses::writebacks        43623                       # number of WritebackDirty accesses(hits+misses)
system.l2.WritebackDirty_accesses::total        43623                       # number of WritebackDirty accesses(hits+misses)
system.l2.WritebackClean_accesses::writebacks           71                       # number of WritebackClean accesses(hits+misses)
system.l2.WritebackClean_accesses::total           71                       # number of WritebackClean accesses(hits+misses)
system.l2.UpgradeReq_accesses::cpu.data         15481                       # number of UpgradeReq accesses(hits+misses)
system.l2.UpgradeReq_accesses::total            15481                       # number of UpgradeReq accesses(hits+misses)
system.l2.ReadExReq_accesses::cpu.data           6705                       # number of ReadExReq accesses(hits+misses)
system.l2.ReadExReq_accesses::total              6705                       # number of ReadExReq accesses(hits+misses)
system.l2.ReadCleanReq_accesses::cpu.inst          418                       # number of ReadCleanReq accesses(hits+misses)
system.l2.ReadCleanReq_accesses::total            418                       # number of ReadCleanReq accesses(hits+misses)
system.l2.ReadSharedReq_accesses::cpu.data        38754                       # number of ReadSharedReq accesses(hits+misses)
system.l2.ReadSharedReq_accesses::total         38754                       # number of ReadSharedReq accesses(hits+misses)
system.l2.demand_accesses::cpu.inst               418                       # number of demand (read+write) accesses
system.l2.demand_accesses::cpu.data             45459                       # number of demand (read+write) accesses
system.l2.demand_accesses::total                45877                       # number of demand (read+write) accesses
system.l2.overall_accesses::cpu.inst              418                       # number of overall (read+write) accesses
system.l2.overall_accesses::cpu.data            45459                       # number of overall (read+write) accesses
system.l2.overall_accesses::total               45877                       # number of overall (read+write) accesses
system.l2.ReadExReq_miss_rate::cpu.data      0.961074                       # miss rate for ReadExReq accesses
system.l2.ReadExReq_miss_rate::total         0.961074                       # miss rate for ReadExReq accesses
system.l2.ReadCleanReq_miss_rate::cpu.inst     0.995215                       # miss rate for ReadCleanReq accesses
system.l2.ReadCleanReq_miss_rate::total      0.995215                       # miss rate for ReadCleanReq accesses
system.l2.ReadSharedReq_miss_rate::cpu.data     0.448547                       # miss rate for ReadSharedReq accesses
system.l2.ReadSharedReq_miss_rate::total     0.448547                       # miss rate for ReadSharedReq accesses
system.l2.demand_miss_rate::cpu.inst         0.995215                       # miss rate for demand accesses
system.l2.demand_miss_rate::cpu.data         0.524143                       # miss rate for demand accesses
system.l2.demand_miss_rate::total            0.528435                       # miss rate for demand accesses
system.l2.overall_miss_rate::cpu.inst        0.995215                       # miss rate for overall accesses
system.l2.overall_miss_rate::cpu.data        0.524143                       # miss rate for overall accesses
system.l2.overall_miss_rate::total           0.528435                       # miss rate for overall accesses
system.l2.ReadExReq_avg_miss_latency::cpu.data 82162.709497                       # average ReadExReq miss latency
system.l2.ReadExReq_avg_miss_latency::total 82162.709497                       # average ReadExReq miss latency
system.l2.ReadCleanReq_avg_miss_latency::cpu.inst 191597.355769                       # average ReadCleanReq miss latency
system.l2.ReadCleanReq_avg_miss_latency::total 191597.355769                       # average ReadCleanReq miss latency
system.l2.ReadSharedReq_avg_miss_latency::cpu.data 42177.961226                       # average ReadSharedReq miss latency
system.l2.ReadSharedReq_avg_miss_latency::total 42177.961226                       # average ReadSharedReq miss latency
system.l2.demand_avg_miss_latency::cpu.inst 191597.355769                       # average overall miss latency
system.l2.demand_avg_miss_latency::cpu.data 52991.816007                       # average overall miss latency
system.l2.demand_avg_miss_latency::total 55370.230582                       # average overall miss latency
system.l2.overall_avg_miss_latency::cpu.inst 191597.355769                       # average overall miss latency
system.l2.overall_avg_miss_latency::cpu.data 52991.816007                       # average overall miss latency
system.l2.overall_avg_miss_latency::total 55370.230582                       # average overall miss latency
system.l2.blocked_cycles::no_mshrs                  0                       # number of cycles access was blocked
system.l2.blocked_cycles::no_targets                0                       # number of cycles access was blocked
system.l2.blocked::no_mshrs                         0                       # number of cycles access was blocked
system.l2.blocked::no_targets                       0                       # number of cycles access was blocked
system.l2.avg_blocked_cycles::no_mshrs            nan                       # average number of cycles each access was blocked
system.l2.avg_blocked_cycles::no_targets          nan                       # average number of cycles each access was blocked
system.l2.writebacks::writebacks                21836                       # number of writebacks
system.l2.writebacks::total                     21836                       # number of writebacks
system.l2.ReadExReq_mshr_misses::cpu.data         6444                       # number of ReadExReq MSHR misses
system.l2.ReadExReq_mshr_misses::total           6444                       # number of ReadExReq MSHR misses
system.l2.ReadCleanReq_mshr_misses::cpu.inst          416                       # number of ReadCleanReq MSHR misses
system.l2.ReadCleanReq_mshr_misses::total          416                       # number of ReadCleanReq MSHR misses
system.l2.ReadSharedReq_mshr_misses::cpu.data        17383                       # number of ReadSharedReq MSHR misses
system.l2.ReadSharedReq_mshr_misses::total        17383                       # number of ReadSharedReq MSHR misses
system.l2.demand_mshr_misses::cpu.inst            416                       # number of demand (read+write) MSHR misses
system.l2.demand_mshr_misses::cpu.data          23827                       # number of demand (read+write) MSHR misses
system.l2.demand_mshr_misses::total             24243                       # number of demand (read+write) MSHR misses
system.l2.overall_mshr_misses::cpu.inst           416                       # number of overall MSHR misses
system.l2.overall_mshr_misses::cpu.data         23827                       # number of overall MSHR misses
system.l2.overall_mshr_misses::total            24243                       # number of overall MSHR misses
system.l2.ReadExReq_mshr_miss_latency::cpu.data    465016500                       # number of ReadExReq MSHR miss cycles
system.l2.ReadExReq_mshr_miss_latency::total    465016500                       # number of ReadExReq MSHR miss cycles
system.l2.ReadCleanReq_mshr_miss_latency::cpu.inst     75544500                       # number of ReadCleanReq MSHR miss cycles
system.l2.ReadCleanReq_mshr_miss_latency::total     75544500                       # number of ReadCleanReq MSHR miss cycles
system.l2.ReadSharedReq_mshr_miss_latency::cpu.data    559349500                       # number of ReadSharedReq MSHR miss cycles
system.l2.ReadSharedReq_mshr_miss_latency::total    559349500                       # number of ReadSharedReq MSHR miss cycles
system.l2.demand_mshr_miss_latency::cpu.inst     75544500                       # number of demand (read+write) MSHR miss cycles
system.l2.demand_mshr_miss_latency::cpu.data   1024366000                       # number of demand (read+write) MSHR miss cycles
system.l2.demand_mshr_miss_latency::total   1099910500                       # number of demand (read+write) MSHR miss cycles
system.l2.overall_mshr_miss_latency::cpu.inst     75544500                       # number of overall MSHR miss cycles
system.l2.overall_mshr_miss_latency::cpu.data   1024366000                       # number of overall MSHR miss cycles
system.l2.overall_mshr_miss_latency::total   1099910500                       # number of overall MSHR miss cycles
system.l2.ReadExReq_mshr_miss_rate::cpu.data     0.961074                       # mshr miss rate for ReadExReq accesses
system.l2.ReadExReq_mshr_miss_rate::total     0.961074                       # mshr miss rate for ReadExReq accesses
system.l2.ReadCleanReq_mshr_miss_rate::cpu.inst     0.995215                       # mshr miss rate for ReadCleanReq accesses
system.l2.ReadCleanReq_mshr_miss_rate::total     0.995215                       # mshr miss rate for ReadCleanReq accesses
system.l2.ReadSharedReq_mshr_miss_rate::cpu.data     0.448547                       # mshr miss rate for ReadSharedReq accesses
system.l2.ReadSharedReq_mshr_miss_rate::total     0.448547                       # mshr miss rate for ReadSharedReq accesses
system.l2.demand_mshr_miss_rate::cpu.inst     0.995215                       # mshr miss rate for demand accesses
system.l2.demand_mshr_miss_rate::cpu.data     0.524143                       # mshr miss rate for demand accesses
system.l2.demand_mshr_miss_rate::total       0.528435                       # mshr miss rate for demand accesses
system.l2.overall_mshr_miss_rate::cpu.inst     0.995215                       # mshr miss rate for overall accesses
system.l2.overall_mshr_miss_rate::cpu.data     0.524143                       # mshr miss rate for overall accesses
system.l2.overall_mshr_miss_rate::total      0.528435                       # mshr miss rate for overall accesses
system.l2.ReadExReq_avg_mshr_miss_latency::cpu.data 72162.709497                       # average ReadExReq mshr miss latency
system.l2.ReadExReq_avg_mshr_miss_latency::total 72162.709497                       # average ReadExReq mshr miss latency
system.l2.ReadCleanReq_avg_mshr_miss_latency::cpu.inst 181597.355769                       # average ReadCleanReq mshr miss latency
system.l2.ReadCleanReq_avg_mshr_miss_latency::total 181597.355769                       # average ReadCleanReq mshr miss latency
system.l2.ReadSharedReq_avg_mshr_miss_latency::cpu.data 32177.961226                       # average ReadSharedReq mshr miss latency
system.l2.ReadSharedReq_avg_mshr_miss_latency::total 32177.961226                       # average ReadSharedReq mshr miss latency
system.l2.demand_avg_mshr_miss_latency::cpu.inst 181597.355769                       # average overall mshr miss latency
system.l2.demand_avg_mshr_miss_latency::cpu.data 42991.816007                       # average overall mshr miss latency
system.l2.demand_avg_mshr_miss_latency::total 45370.230582                       # average overall mshr miss latency
system.l2.overall_avg_mshr_miss_latency::cpu.inst 181597.355769                       # average overall mshr miss latency
system.l2.overall_avg_mshr_miss_latency::cpu.data 42991.816007                       # average overall mshr miss latency
system.l2.overall_avg_mshr_miss_latency::total 45370.230582                       # average overall mshr miss latency
system.l2.replacements                          22242                       # number of replacements
system.l3.tags.pwrStateResidencyTicks::UNDEFINED  88074484000                       # Cumulative time (in ticks) in various power states
system.l3.tags.tagsinuse                  5970.620216                       # Cycle average of tags in use
system.l3.tags.total_refs                       46187                       # Total number of references to valid blocks.
system.l3.tags.sampled_refs                      7596                       # Sample count of references to valid blocks.
system.l3.tags.avg_refs                      6.080437                       # Average number of references to valid blocks.
system.l3.tags.warmup_cycle                    418000                       # Cycle when the warmup percentage was hit.
system.l3.tags.occ_blocks::writebacks        4.676377                       # Average occupied blocks per requestor
system.l3.tags.occ_blocks::cpu.inst        208.959833                       # Average occupied blocks per requestor
system.l3.tags.occ_blocks::cpu.data       5756.984006                       # Average occupied blocks per requestor
system.l3.tags.occ_percent::writebacks       0.000571                       # Average percentage of cache occupancy
system.l3.tags.occ_percent::cpu.inst         0.025508                       # Average percentage of cache occupancy
system.l3.tags.occ_percent::cpu.data         0.702757                       # Average percentage of cache occupancy
system.l3.tags.occ_percent::total            0.728835                       # Average percentage of cache occupancy
system.l3.tags.occ_task_id_blocks::1024          6462                       # Occupied blocks per task id
system.l3.tags.age_task_id_blocks_1024::0           47                       # Occupied blocks per task id
system.l3.tags.age_task_id_blocks_1024::1           94                       # Occupied blocks per task id
system.l3.tags.age_task_id_blocks_1024::3            1                       # Occupied blocks per task id
system.l3.tags.age_task_id_blocks_1024::4         6320                       # Occupied blocks per task id
system.l3.tags.occ_task_id_percent::1024     0.788818                       # Percentage of cache occupancy per task id
system.l3.tags.tag_accesses                     99978                       # Number of tag accesses
system.l3.tags.data_accesses                    99978                       # Number of data accesses
system.l3.pwrStateResidencyTicks::UNDEFINED  88074484000                       # Cumulative time (in ticks) in various power states
system.l3.WritebackDirty_hits::writebacks        21836                       # number of WritebackDirty hits
system.l3.WritebackDirty_hits::total            21836                       # number of WritebackDirty hits
system.l3.ReadExReq_hits::cpu.data                 44                       # number of ReadExReq hits
system.l3.ReadExReq_hits::total                    44                       # number of ReadExReq hits
system.l3.ReadSharedReq_hits::cpu.data          16732                       # number of ReadSharedReq hits
system.l3.ReadSharedReq_hits::total             16732                       # number of ReadSharedReq hits
system.l3.demand_hits::cpu.data                 16776                       # number of demand (read+write) hits
system.l3.demand_hits::total                    16776                       # number of demand (read+write) hits
system.l3.overall_hits::cpu.data                16776                       # number of overall hits
system.l3.overall_hits::total                   16776                       # number of overall hits
system.l3.ReadExReq_misses::cpu.data             6400                       # number of ReadExReq misses
system.l3.ReadExReq_misses::total                6400                       # number of ReadExReq misses
system.l3.ReadSharedReq_misses::cpu.inst          416                       # number of ReadSharedReq misses
system.l3.ReadSharedReq_misses::cpu.data          651                       # number of ReadSharedReq misses
system.l3.ReadSharedReq_misses::total            1067                       # number of ReadSharedReq misses
system.l3.demand_misses::cpu.inst                 416                       # number of demand (read+write) misses
system.l3.demand_misses::cpu.data                7051                       # number of demand (read+write) misses
system.l3.demand_misses::total                   7467                       # number of demand (read+write) misses
system.l3.overall_misses::cpu.inst                416                       # number of overall misses
system.l3.overall_misses::cpu.data               7051                       # number of overall misses
system.l3.overall_misses::total                  7467                       # number of overall misses
system.l3.ReadExReq_miss_latency::cpu.data    387226500                       # number of ReadExReq miss cycles
system.l3.ReadExReq_miss_latency::total     387226500                       # number of ReadExReq miss cycles
system.l3.ReadSharedReq_miss_latency::cpu.inst     70552500                       # number of ReadSharedReq miss cycles
system.l3.ReadSharedReq_miss_latency::cpu.data    175067500                       # number of ReadSharedReq miss cycles
system.l3.ReadSharedReq_miss_latency::total    245620000                       # number of ReadSharedReq miss cycles
system.l3.demand_miss_latency::cpu.inst      70552500                       # number of demand (read+write) miss cycles
system.l3.demand_miss_latency::cpu.data     562294000                       # number of demand (read+write) miss cycles
system.l3.demand_miss_latency::total        632846500                       # number of demand (read+write) miss cycles
system.l3.overall_miss_latency::cpu.inst     70552500                       # number of overall miss cycles
system.l3.overall_miss_latency::cpu.data    562294000                       # number of overall miss cycles
system.l3.overall_miss_latency::total       632846500                       # number of overall miss cycles
system.l3.WritebackDirty_accesses::writebacks        21836                       # number of WritebackDirty accesses(hits+misses)
system.l3.WritebackDirty_accesses::total        21836                       # number of WritebackDirty accesses(hits+misses)
system.l3.ReadExReq_accesses::cpu.data           6444                       # number of ReadExReq accesses(hits+misses)
system.l3.ReadExReq_accesses::total              6444                       # number of ReadExReq accesses(hits+misses)
system.l3.ReadSharedReq_accesses::cpu.inst          416                       # number of ReadSharedReq accesses(hits+misses)
system.l3.ReadSharedReq_accesses::cpu.data        17383                       # number of ReadSharedReq accesses(hits+misses)
system.l3.ReadSharedReq_accesses::total         17799                       # number of ReadSharedReq accesses(hits+misses)
system.l3.demand_accesses::cpu.inst               416                       # number of demand (read+write) accesses
system.l3.demand_accesses::cpu.data             23827                       # number of demand (read+write) accesses
system.l3.demand_accesses::total                24243                       # number of demand (read+write) accesses
system.l3.overall_accesses::cpu.inst              416                       # number of overall (read+write) accesses
system.l3.overall_accesses::cpu.data            23827                       # number of overall (read+write) accesses
system.l3.overall_accesses::total               24243                       # number of overall (read+write) accesses
system.l3.ReadExReq_miss_rate::cpu.data      0.993172                       # miss rate for ReadExReq accesses
system.l3.ReadExReq_miss_rate::total         0.993172                       # miss rate for ReadExReq accesses
system.l3.ReadSharedReq_miss_rate::cpu.inst            1                       # miss rate for ReadSharedReq accesses
system.l3.ReadSharedReq_miss_rate::cpu.data     0.037450                       # miss rate for ReadSharedReq accesses
system.l3.ReadSharedReq_miss_rate::total     0.059947                       # miss rate for ReadSharedReq accesses
system.l3.demand_miss_rate::cpu.inst                1                       # miss rate for demand accesses
system.l3.demand_miss_rate::cpu.data         0.295925                       # miss rate for demand accesses
system.l3.demand_miss_rate::total            0.308006                       # miss rate for demand accesses
system.l3.overall_miss_rate::cpu.inst               1                       # miss rate for overall accesses
system.l3.overall_miss_rate::cpu.data        0.295925                       # miss rate for overall accesses
system.l3.overall_miss_rate::total           0.308006                       # miss rate for overall accesses
system.l3.ReadExReq_avg_miss_latency::cpu.data 60504.140625                       # average ReadExReq miss latency
system.l3.ReadExReq_avg_miss_latency::total 60504.140625                       # average ReadExReq miss latency
system.l3.ReadSharedReq_avg_miss_latency::cpu.inst 169597.355769                       # average ReadSharedReq miss latency
system.l3.ReadSharedReq_avg_miss_latency::cpu.data 268920.890937                       # average ReadSharedReq miss latency
system.l3.ReadSharedReq_avg_miss_latency::total 230196.813496                       # average ReadSharedReq miss latency
system.l3.demand_avg_miss_latency::cpu.inst 169597.355769                       # average overall miss latency
system.l3.demand_avg_miss_latency::cpu.data 79746.702595                       # average overall miss latency
system.l3.demand_avg_miss_latency::total 84752.444087                       # average overall miss latency
system.l3.overall_avg_miss_latency::cpu.inst 169597.355769                       # average overall miss latency
system.l3.overall_avg_miss_latency::cpu.data 79746.702595                       # average overall miss latency
system.l3.overall_avg_miss_latency::total 84752.444087                       # average overall miss latency
system.l3.blocked_cycles::no_mshrs                  0                       # number of cycles access was blocked
system.l3.blocked_cycles::no_targets                0                       # number of cycles access was blocked
system.l3.blocked::no_mshrs                         0                       # number of cycles access was blocked
system.l3.blocked::no_targets                       0                       # number of cycles access was blocked
system.l3.avg_blocked_cycles::no_mshrs            nan                       # average number of cycles each access was blocked
system.l3.avg_blocked_cycles::no_targets          nan                       # average number of cycles each access was blocked
system.l3.writebacks::writebacks                  829                       # number of writebacks
system.l3.writebacks::total                       829                       # number of writebacks
system.l3.CleanEvict_mshr_misses::writebacks            4                       # number of CleanEvict MSHR misses
system.l3.CleanEvict_mshr_misses::total             4                       # number of CleanEvict MSHR misses
system.l3.ReadExReq_mshr_misses::cpu.data         6400                       # number of ReadExReq MSHR misses
system.l3.ReadExReq_mshr_misses::total           6400                       # number of ReadExReq MSHR misses
system.l3.ReadSharedReq_mshr_misses::cpu.inst          416                       # number of ReadSharedReq MSHR misses
system.l3.ReadSharedReq_mshr_misses::cpu.data          651                       # number of ReadSharedReq MSHR misses
system.l3.ReadSharedReq_mshr_misses::total         1067                       # number of ReadSharedReq MSHR misses
system.l3.demand_mshr_misses::cpu.inst            416                       # number of demand (read+write) MSHR misses
system.l3.demand_mshr_misses::cpu.data           7051                       # number of demand (read+write) MSHR misses
system.l3.demand_mshr_misses::total              7467                       # number of demand (read+write) MSHR misses
system.l3.overall_mshr_misses::cpu.inst           416                       # number of overall MSHR misses
system.l3.overall_mshr_misses::cpu.data          7051                       # number of overall MSHR misses
system.l3.overall_mshr_misses::total             7467                       # number of overall MSHR misses
system.l3.ReadExReq_mshr_miss_latency::cpu.data    323226500                       # number of ReadExReq MSHR miss cycles
system.l3.ReadExReq_mshr_miss_latency::total    323226500                       # number of ReadExReq MSHR miss cycles
system.l3.ReadSharedReq_mshr_miss_latency::cpu.inst     66392500                       # number of ReadSharedReq MSHR miss cycles
system.l3.ReadSharedReq_mshr_miss_latency::cpu.data    168557500                       # number of ReadSharedReq MSHR miss cycles
system.l3.ReadSharedReq_mshr_miss_latency::total    234950000                       # number of ReadSharedReq MSHR miss cycles
system.l3.demand_mshr_miss_latency::cpu.inst     66392500                       # number of demand (read+write) MSHR miss cycles
system.l3.demand_mshr_miss_latency::cpu.data    491784000                       # number of demand (read+write) MSHR miss cycles
system.l3.demand_mshr_miss_latency::total    558176500                       # number of demand (read+write) MSHR miss cycles
system.l3.overall_mshr_miss_latency::cpu.inst     66392500                       # number of overall MSHR miss cycles
system.l3.overall_mshr_miss_latency::cpu.data    491784000                       # number of overall MSHR miss cycles
system.l3.overall_mshr_miss_latency::total    558176500                       # number of overall MSHR miss cycles
system.l3.CleanEvict_mshr_miss_rate::writebacks          inf                       # mshr miss rate for CleanEvict accesses
system.l3.CleanEvict_mshr_miss_rate::total          inf                       # mshr miss rate for CleanEvict accesses
system.l3.ReadExReq_mshr_miss_rate::cpu.data     0.993172                       # mshr miss rate for ReadExReq accesses
system.l3.ReadExReq_mshr_miss_rate::total     0.993172                       # mshr miss rate for ReadExReq accesses
system.l3.ReadSharedReq_mshr_miss_rate::cpu.inst            1                       # mshr miss rate for ReadSharedReq accesses
system.l3.ReadSharedReq_mshr_miss_rate::cpu.data     0.037450                       # mshr miss rate for ReadSharedReq accesses
system.l3.ReadSharedReq_mshr_miss_rate::total     0.059947                       # mshr miss rate for ReadSharedReq accesses
system.l3.demand_mshr_miss_rate::cpu.inst            1                       # mshr miss rate for demand accesses
system.l3.demand_mshr_miss_rate::cpu.data     0.295925                       # mshr miss rate for demand accesses
system.l3.demand_mshr_miss_rate::total       0.308006                       # mshr miss rate for demand accesses
system.l3.overall_mshr_miss_rate::cpu.inst            1                       # mshr miss rate for overall accesses
system.l3.overall_mshr_miss_rate::cpu.data     0.295925                       # mshr miss rate for overall accesses
system.l3.overall_mshr_miss_rate::total      0.308006                       # mshr miss rate for overall accesses
system.l3.ReadExReq_avg_mshr_miss_latency::cpu.data 50504.140625                       # average ReadExReq mshr miss latency
system.l3.ReadExReq_avg_mshr_miss_latency::total 50504.140625                       # average ReadExReq mshr miss latency
system.l3.ReadSharedReq_avg_mshr_miss_latency::cpu.inst 159597.355769                       # average ReadSharedReq mshr miss latency
system.l3.ReadSharedReq_avg_mshr_miss_latency::cpu.data 258920.890937                       # average ReadSharedReq mshr miss latency
system.l3.ReadSharedReq_avg_mshr_miss_latency::total 220196.813496                       # average ReadSharedReq mshr miss latency
system.l3.demand_avg_mshr_miss_latency::cpu.inst 159597.355769                       # average overall mshr miss latency
system.l3.demand_avg_mshr_miss_latency::cpu.data 69746.702595                       # average overall mshr miss latency
system.l3.demand_avg_mshr_miss_latency::total 74752.444087                       # average overall mshr miss latency
system.l3.overall_avg_mshr_miss_latency::cpu.inst 159597.355769                       # average overall mshr miss latency
system.l3.overall_avg_mshr_miss_latency::cpu.data 69746.702595                       # average overall mshr miss latency
system.l3.overall_avg_mshr_miss_latency::total 74752.444087                       # average overall mshr miss latency
system.l3.replacements                           1134                       # number of replacements
system.membus.snoop_filter.tot_requests          8448                       # Total number of requests made to the snoop filter.
system.membus.snoop_filter.hit_single_requests          981                       # Number of requests hitting in the snoop filter with a single holder of the requested data.
system.membus.snoop_filter.hit_multi_requests            0                       # Number of requests hitting in the snoop filter with multiple (>1) holders of the requested data.
system.membus.snoop_filter.tot_snoops               0                       # Total number of snoops made to the snoop filter.
system.membus.snoop_filter.hit_single_snoops            0                       # Number of snoops hitting in the snoop filter with a single holder of the requested data.
system.membus.snoop_filter.hit_multi_snoops            0                       # Number of snoops hitting in the snoop filter with multiple (>1) holders of the requested data.
system.membus.pwrStateResidencyTicks::UNDEFINED  88074484000                       # Cumulative time (in ticks) in various power states
system.membus.trans_dist::ReadResp               1067                       # Transaction distribution
system.membus.trans_dist::WritebackDirty          829                       # Transaction distribution
system.membus.trans_dist::CleanEvict               76                       # Transaction distribution
system.membus.trans_dist::ReadExReq              6400                       # Transaction distribution
system.membus.trans_dist::ReadExResp             6400                       # Transaction distribution
system.membus.trans_dist::ReadSharedReq          1067                       # Transaction distribution
system.membus.pkt_count_system.l3.mem_side::system.mem_ctrls.port        15839                       # Packet count per connected master and slave (bytes)
system.membus.pkt_count_system.l3.mem_side::total        15839                       # Packet count per connected master and slave (bytes)
system.membus.pkt_count::total                  15839                       # Packet count per connected master and slave (bytes)
system.membus.pkt_size_system.l3.mem_side::system.mem_ctrls.port       530944                       # Cumulative packet size per connected master and slave (bytes)
system.membus.pkt_size_system.l3.mem_side::total       530944                       # Cumulative packet size per connected master and slave (bytes)
system.membus.pkt_size::total                  530944                       # Cumulative packet size per connected master and slave (bytes)
system.membus.snoops                                0                       # Total snoops (count)
system.membus.snoopTraffic                          0                       # Total snoop traffic (bytes)
system.membus.snoop_fanout::samples              7467                       # Request fanout histogram
system.membus.snoop_fanout::mean                    0                       # Request fanout histogram
system.membus.snoop_fanout::stdev                   0                       # Request fanout histogram
system.membus.snoop_fanout::underflows              0      0.00%      0.00% # Request fanout histogram
system.membus.snoop_fanout::0                    7467    100.00%    100.00% # Request fanout histogram
system.membus.snoop_fanout::1                       0      0.00%    100.00% # Request fanout histogram
system.membus.snoop_fanout::overflows               0      0.00%    100.00% # Request fanout histogram
system.membus.snoop_fanout::min_value               0                       # Request fanout histogram
system.membus.snoop_fanout::max_value               0                       # Request fanout histogram
system.membus.snoop_fanout::total                7467                       # Request fanout histogram
system.membus.reqLayer2.occupancy            11768000                       # Layer occupancy (ticks)
system.membus.reqLayer2.utilization               0.0                       # Layer utilization (%)
system.membus.respLayer1.occupancy           37339000                       # Layer occupancy (ticks)
system.membus.respLayer1.utilization              0.0                       # Layer utilization (%)
system.tol2bus.pwrStateResidencyTicks::UNDEFINED  88074484000                       # Cumulative time (in ticks) in various power states
system.tol2bus.trans_dist::ReadResp             39172                       # Transaction distribution
system.tol2bus.trans_dist::WritebackDirty        65459                       # Transaction distribution
system.tol2bus.trans_dist::WritebackClean           71                       # Transaction distribution
system.tol2bus.trans_dist::CleanEvict            1963                       # Transaction distribution
system.tol2bus.trans_dist::UpgradeReq           15481                       # Transaction distribution
system.tol2bus.trans_dist::UpgradeResp          15481                       # Transaction distribution
system.tol2bus.trans_dist::ReadExReq             6705                       # Transaction distribution
system.tol2bus.trans_dist::ReadExResp            6705                       # Transaction distribution
system.tol2bus.trans_dist::ReadCleanReq           418                       # Transaction distribution
system.tol2bus.trans_dist::ReadSharedReq        38754                       # Transaction distribution
system.tol2bus.pkt_count_system.cpu.icache.mem_side::system.l2.cpu_side          907                       # Packet count per connected master and slave (bytes)
system.tol2bus.pkt_count_system.cpu.dcache.mem_side::system.l2.cpu_side       166827                       # Packet count per connected master and slave (bytes)
system.tol2bus.pkt_count::total                167734                       # Packet count per connected master and slave (bytes)
system.tol2bus.pkt_size_system.cpu.icache.mem_side::system.l2.cpu_side        31296                       # Cumulative packet size per connected master and slave (bytes)
system.tol2bus.pkt_size_system.cpu.dcache.mem_side::system.l2.cpu_side      5701248                       # Cumulative packet size per connected master and slave (bytes)
system.tol2bus.pkt_size::total                5732544                       # Cumulative packet size per connected master and slave (bytes)
system.tol2bus.snoops                           22475                       # Total snoops (count)
system.tol2bus.snoopTraffic                   1397504                       # Total snoop traffic (bytes)
system.tol2bus.snoop_fanout::samples           128851                       # Request fanout histogram
system.tol2bus.snoop_fanout::mean            3.174426                       # Request fanout histogram
system.tol2bus.snoop_fanout::stdev           0.379477                       # Request fanout histogram
system.tol2bus.snoop_fanout::underflows             0      0.00%      0.00% # Request fanout histogram
system.tol2bus.snoop_fanout::0                      0      0.00%      0.00% # Request fanout histogram
system.tol2bus.snoop_fanout::1                      0      0.00%      0.00% # Request fanout histogram
system.tol2bus.snoop_fanout::2                      0      0.00%      0.00% # Request fanout histogram
system.tol2bus.snoop_fanout::3                 106376     82.56%     82.56% # Request fanout histogram
system.tol2bus.snoop_fanout::4                  22475     17.44%    100.00% # Request fanout histogram
system.tol2bus.snoop_fanout::overflows              0      0.00%    100.00% # Request fanout histogram
system.tol2bus.snoop_fanout::min_value              3                       # Request fanout histogram
system.tol2bus.snoop_fanout::max_value              4                       # Request fanout histogram
system.tol2bus.snoop_fanout::total             128851                       # Request fanout histogram
system.tol2bus.reqLayer0.occupancy           96882000                       # Layer occupancy (ticks)
system.tol2bus.reqLayer0.utilization              0.1                       # Layer utilization (%)
system.tol2bus.respLayer0.occupancy            627000                       # Layer occupancy (ticks)
system.tol2bus.respLayer0.utilization             0.0                       # Layer utilization (%)
system.tol2bus.respLayer1.occupancy          75929000                       # Layer occupancy (ticks)
system.tol2bus.respLayer1.utilization             0.1                       # Layer utilization (%)
system.tol3bus.snoop_filter.tot_requests        46191                       # Total number of requests made to the snoop filter.
system.tol3bus.snoop_filter.hit_single_requests        21948                       # Number of requests hitting in the snoop filter with a single holder of the requested data.
system.tol3bus.snoop_filter.hit_multi_requests            0                       # Number of requests hitting in the snoop filter with multiple (>1) holders of the requested data.
system.tol3bus.snoop_filter.tot_snoops            233                       # Total number of snoops made to the snoop filter.
system.tol3bus.snoop_filter.hit_single_snoops          233                       # Number of snoops hitting in the snoop filter with a single holder of the requested data.
system.tol3bus.snoop_filter.hit_multi_snoops            0                       # Number of snoops hitting in the snoop filter with multiple (>1) holders of the requested data.
system.tol3bus.pwrStateResidencyTicks::UNDEFINED  88074484000                       # Cumulative time (in ticks) in various power states
system.tol3bus.trans_dist::ReadResp             17799                       # Transaction distribution
system.tol3bus.trans_dist::WritebackDirty        22665                       # Transaction distribution
system.tol3bus.trans_dist::CleanEvict             417                       # Transaction distribution
system.tol3bus.trans_dist::ReadExReq             6444                       # Transaction distribution
system.tol3bus.trans_dist::ReadExResp            6444                       # Transaction distribution
system.tol3bus.trans_dist::ReadSharedReq        17799                       # Transaction distribution
system.tol3bus.pkt_count_system.l2.mem_side::system.l3.cpu_side        70434                       # Packet count per connected master and slave (bytes)
system.tol3bus.pkt_size_system.l2.mem_side::system.l3.cpu_side      2949056                       # Cumulative packet size per connected master and slave (bytes)
system.tol3bus.snoops                            1134                       # Total snoops (count)
system.tol3bus.snoopTraffic                     53056                       # Total snoop traffic (bytes)
system.tol3bus.snoop_fanout::samples            25377                       # Request fanout histogram
system.tol3bus.snoop_fanout::mean            0.009182                       # Request fanout histogram
system.tol3bus.snoop_fanout::stdev           0.095381                       # Request fanout histogram
system.tol3bus.snoop_fanout::underflows             0      0.00%      0.00% # Request fanout histogram
system.tol3bus.snoop_fanout::0                  25144     99.08%     99.08% # Request fanout histogram
system.tol3bus.snoop_fanout::1                    233      0.92%    100.00% # Request fanout histogram
system.tol3bus.snoop_fanout::overflows              0      0.00%    100.00% # Request fanout histogram
system.tol3bus.snoop_fanout::min_value              0                       # Request fanout histogram
system.tol3bus.snoop_fanout::max_value              1                       # Request fanout histogram
system.tol3bus.snoop_fanout::total              25377                       # Request fanout histogram
system.tol3bus.reqLayer0.occupancy           44931500                       # Layer occupancy (ticks)
system.tol3bus.reqLayer0.utilization              0.1                       # Layer utilization (%)
system.tol3bus.respLayer0.occupancy          36364500                       # Layer occupancy (ticks)
system.tol3bus.respLayer0.utilization             0.0                       # Layer utilization (%)

---------- End Simulation Statistics   ----------
